Circuit: * D:\My Home Directory\Documents\Projects\Wireless Sensors\WirelessSensors\KiCad\Power Development Board\Power swich circuit.asc


Date: Mon Sep 25 12:01:35 2023
Total elapsed time: 0.127 seconds.

tnom = 27
temp = 27
method = trap
totiter = 337
traniter = 0
tranpoints = 0
accept = 0
rejected = 0
matrix size = 15
fillins = 1
solver = Normal
Matrix Compiler1: 820 bytes object code size  0.2/0.1/[0.1]
Matrix Compiler2: 1.15 KB object code size  0.1/0.2/[0.1]

